<?xml version="1.0" encoding="UTF-8"?>

<!-- generated on 2024-05-20 17:15:57 by Eclipse SUMO netedit Version 1.19.0
<configuration xmlns:xsi="http://www.w3.org/2001/XMLSchema-instance" xsi:noNamespaceSchemaLocation="http://sumo.dlr.de/xsd/neteditConfiguration.xsd">

    <input>
        <sumocfg-file value="C:\Users\Studente\Desktop\Ahmad-Prjct\Project 02\project 2024 with trafffic lights\b.sumocfg"/>
        <additional-files value=""/>
        <route-files value="C:\Users\Studente\Desktop\Ahmad-Prjct\Project 02\project 2024 with trafffic lights\b.rou.xml"/>
        <sumo-net-file value="C:\Users\Studente\Desktop\Ahmad-Prjct\Project 02\project 2024 with trafffic lights\b.net.xml"/>
    </input>

    <output>
        <output-file value="C:\Users\Studente\Desktop\Ahmad-Prjct\Project 02\project 2024 with trafffic lights\b.net.xml"/>
        <output.street-names value="true"/>
    </output>

    <processing>
        <geometry.min-radius.fix.railways value="false"/>
        <geometry.max-grade.fix value="false"/>
        <offset.disable-normalization value="true"/>
        <lefthand value="0"/>
    </processing>

    <junctions>
        <no-turnarounds value="true"/>
        <junctions.corner-detail value="5"/>
        <junctions.limit-turn-speed value="5.50"/>
        <rectangular-lane-cut value="0"/>
    </junctions>

    <pedestrian>
        <walkingareas value="0"/>
    </pedestrian>

    <netedit>
        <ignore.routeelements value="false"/>
    </netedit>

</configuration>
-->

<net version="1.16" junctionCornerDetail="5" limitTurnSpeed="5.50" xmlns:xsi="http://www.w3.org/2001/XMLSchema-instance" xsi:noNamespaceSchemaLocation="http://sumo.dlr.de/xsd/net_file.xsd">

    <location netOffset="0.00,0.00" convBoundary="655967.21,4553523.88,656792.52,4554189.02" origBoundary="16.852028,41.118019,16.872414,41.127879" projParameter="+proj=utm +zone=33 +ellps=WGS84 +datum=WGS84 +units=m +no_defs"/>

    <type id="highway.residential" priority="3" numLanes="1" speed="13.89" disallow="tram rail_urban rail rail_electric rail_fast ship" oneway="0"/>
    <type id="highway.tertiary" priority="10" numLanes="1" speed="22.22" disallow="tram rail_urban rail rail_electric rail_fast ship" oneway="0"/>

    <edge id=":270388330_0" function="internal">
        <lane id=":270388330_0_0" index="0" speed="13.89" length="11.20" shape="656547.69,4553571.86 656558.83,4553573.02"/>
    </edge>
    <edge id=":270388330_1" function="internal">
        <lane id=":270388330_1_0" index="0" disallow="tram rail_urban rail rail_electric rail_fast ship" speed="6.49" length="9.03" shape="656552.70,4553578.02 656553.29,4553575.62 656554.50,4553573.98 656556.35,4553573.11 656558.83,4553573.02"/>
    </edge>
    <edge id=":270388358_0" function="internal">
        <lane id=":270388358_0_0" index="0" disallow="tram rail_urban rail rail_electric rail_fast ship" speed="6.93" length="10.36" shape="656229.98,4554139.91 656227.58,4554139.23 656225.97,4554137.71 656225.14,4554135.37 656225.08,4554132.20"/>
    </edge>
    <edge id=":270388358_1" function="internal">
        <lane id=":270388358_1_0" index="0" disallow="tram rail_urban rail rail_electric rail_fast ship" speed="6.50" length="9.03" shape="656218.98,4554137.23 656221.45,4554137.12 656223.30,4554136.25 656224.51,4554134.60 656225.08,4554132.20"/>
    </edge>
    <edge id=":270388441_0" function="internal">
        <lane id=":270388441_0_0" index="0" disallow="tram rail_urban rail rail_electric rail_fast ship" speed="13.89" length="11.20" shape="656230.88,4554070.51 656231.92,4554059.36"/>
    </edge>
    <edge id=":270388441_1" function="internal">
        <lane id=":270388441_1_0" index="0" disallow="tram rail_urban rail rail_electric rail_fast ship" speed="6.50" length="9.03" shape="656230.88,4554070.51 656231.45,4554068.10 656232.66,4554066.46 656234.51,4554065.58 656236.98,4554065.47"/>
    </edge>
    <edge id=":270388512_0" function="internal">
        <lane id=":270388512_0_0" index="0" disallow="tram rail_urban rail rail_electric rail_fast ship" speed="13.89" length="11.19" shape="656243.96,4553991.12 656232.82,4553990.04"/>
    </edge>
    <edge id=":270388512_1" function="internal">
        <lane id=":270388512_1_0" index="0" disallow="tram rail_urban rail rail_electric rail_fast ship" speed="6.51" length="4.10" shape="656243.96,4553991.12 656241.56,4553990.53 656240.25,4553989.57"/>
    </edge>
    <edge id=":270388512_4" function="internal">
        <lane id=":270388512_4_0" index="0" disallow="tram rail_urban rail rail_electric rail_fast ship" speed="6.51" length="4.93" shape="656240.25,4553989.57 656239.91,4553989.32 656239.03,4553987.48 656238.91,4553985.01"/>
    </edge>
    <edge id=":270388512_2" function="internal">
        <lane id=":270388512_2_0" index="0" disallow="tram rail_urban rail rail_electric rail_fast ship" speed="6.51" length="9.03" shape="656237.87,4553996.15 656237.75,4553993.68 656236.87,4553991.84 656235.22,4553990.63 656232.82,4553990.04"/>
    </edge>
    <edge id=":270388512_3" function="internal">
        <lane id=":270388512_3_0" index="0" disallow="tram rail_urban rail rail_electric rail_fast ship" speed="13.89" length="11.19" shape="656237.87,4553996.15 656238.91,4553985.01"/>
    </edge>
    <edge id=":270388532_0" function="internal">
        <lane id=":270388532_0_0" index="0" disallow="tram rail_urban rail rail_electric rail_fast ship" speed="13.89" length="11.20" shape="656257.69,4553845.16 656246.54,4553844.11"/>
    </edge>
    <edge id=":270388532_1" function="internal">
        <lane id=":270388532_1_0" index="0" disallow="tram rail_urban rail rail_electric rail_fast ship" speed="6.51" length="9.03" shape="656257.69,4553845.16 656255.28,4553844.58 656253.63,4553843.37 656252.75,4553841.53 656252.63,4553839.06"/>
    </edge>
    <edge id=":270388532_2" function="internal">
        <lane id=":270388532_2_0" index="0" disallow="tram rail_urban rail rail_electric rail_fast ship" speed="6.51" length="9.03" shape="656251.59,4553850.21 656251.47,4553847.73 656250.59,4553845.89 656248.94,4553844.68 656246.54,4553844.11"/>
    </edge>
    <edge id=":270388532_3" function="internal">
        <lane id=":270388532_3_0" index="0" disallow="tram rail_urban rail rail_electric rail_fast ship" speed="13.89" length="11.20" shape="656251.59,4553850.21 656252.63,4553839.06"/>
    </edge>
    <edge id=":270388536_0" function="internal">
        <lane id=":270388536_0_0" index="0" disallow="tram rail_urban rail rail_electric rail_fast ship" speed="6.49" length="9.03" shape="656254.33,4553761.15 656256.80,4553761.05 656258.65,4553760.18 656259.86,4553758.54 656260.44,4553756.13"/>
    </edge>
    <edge id=":270388536_1" function="internal">
        <lane id=":270388536_1_0" index="0" disallow="tram rail_urban rail rail_electric rail_fast ship" speed="13.89" length="11.22" shape="656254.33,4553761.15 656265.49,4553762.29"/>
    </edge>
    <edge id=":270388536_2" function="internal">
        <lane id=":270388536_2_0" index="0" disallow="tram rail_urban rail rail_electric rail_fast ship" speed="13.89" length="11.22" shape="656259.38,4553767.31 656260.44,4553756.13"/>
    </edge>
    <edge id=":270388536_3" function="internal">
        <lane id=":270388536_3_0" index="0" disallow="tram rail_urban rail rail_electric rail_fast ship" speed="6.49" length="4.12" shape="656259.38,4553767.31 656259.96,4553764.90 656260.94,4553763.58"/>
    </edge>
    <edge id=":270388536_4" function="internal">
        <lane id=":270388536_4_0" index="0" disallow="tram rail_urban rail rail_electric rail_fast ship" speed="6.49" length="4.91" shape="656260.94,4553763.58 656261.17,4553763.26 656263.02,4553762.39 656265.49,4553762.29"/>
    </edge>
    <edge id=":270388545_0" function="internal">
        <lane id=":270388545_0_0" index="0" disallow="tram rail_urban rail rail_electric rail_fast ship" speed="13.89" length="11.20" shape="656273.10,4553681.26 656261.94,4553680.22"/>
    </edge>
    <edge id=":270388545_1" function="internal">
        <lane id=":270388545_1_0" index="0" disallow="tram rail_urban rail rail_electric rail_fast ship" speed="6.51" length="9.03" shape="656273.10,4553681.26 656270.69,4553680.68 656269.05,4553679.48 656268.16,4553677.64 656268.04,4553675.16"/>
    </edge>
    <edge id=":270388545_2" function="internal">
        <lane id=":270388545_2_0" index="0" disallow="tram rail_urban rail rail_electric rail_fast ship" speed="6.51" length="9.03" shape="656267.00,4553686.32 656266.88,4553683.84 656265.99,4553682.00 656264.35,4553680.80 656261.94,4553680.22"/>
    </edge>
    <edge id=":270388545_3" function="internal">
        <lane id=":270388545_3_0" index="0" disallow="tram rail_urban rail rail_electric rail_fast ship" speed="13.89" length="11.20" shape="656267.00,4553686.32 656268.04,4553675.16"/>
    </edge>
    <edge id=":270388924_0" function="internal">
        <lane id=":270388924_0_0" index="0" disallow="tram rail_urban rail rail_electric rail_fast ship" speed="13.89" length="11.20" shape="656359.99,4553689.37 656348.84,4553688.33"/>
    </edge>
    <edge id=":270388924_1" function="internal">
        <lane id=":270388924_1_0" index="0" disallow="tram rail_urban rail rail_electric rail_fast ship" speed="6.49" length="9.03" shape="656359.99,4553689.37 656357.58,4553688.79 656355.94,4553687.58 656355.07,4553685.74 656354.98,4553683.26"/>
    </edge>
    <edge id=":270389531_0" function="internal">
        <lane id=":270389531_0_0" index="0" disallow="tram rail_urban rail rail_electric rail_fast ship" speed="13.89" length="11.09" shape="656131.22,4554050.97 656130.27,4554062.02"/>
    </edge>
    <edge id=":270389531_1" function="internal">
        <lane id=":270389531_1_0" index="0" disallow="tram rail_urban rail rail_electric rail_fast ship" speed="6.52" length="4.07" shape="656125.20,4554055.97 656127.59,4554056.55 656128.89,4554057.50"/>
    </edge>
    <edge id=":270389531_2" function="internal">
        <lane id=":270389531_2_0" index="0" disallow="tram rail_urban rail rail_electric rail_fast ship" speed="6.52" length="4.91" shape="656128.89,4554057.50 656129.24,4554057.76 656130.13,4554059.58 656130.27,4554062.02"/>
    </edge>
    <edge id=":270389556_0" function="internal">
        <lane id=":270389556_0_0" index="0" speed="13.89" length="11.06" shape="656170.31,4553532.25 656181.31,4553533.42"/>
    </edge>
    <edge id=":270389556_1" function="internal">
        <lane id=":270389556_1_0" index="0" disallow="tram rail_urban rail rail_electric rail_fast ship" speed="6.53" length="8.96" shape="656170.31,4553532.25 656172.67,4553532.85 656174.29,4553534.07 656175.17,4553535.91 656175.30,4553538.37"/>
    </edge>
    <edge id=":270389638_0" function="internal">
        <lane id=":270389638_0_0" index="0" disallow="tram rail_urban rail rail_electric rail_fast ship" speed="13.89" length="11.20" shape="656055.95,4553746.61 656056.91,4553735.45"/>
    </edge>
    <edge id=":270389638_1" function="internal">
        <lane id=":270389638_1_0" index="0" disallow="tram rail_urban rail rail_electric rail_fast ship" speed="6.47" length="9.03" shape="656055.95,4553746.61 656056.51,4553744.19 656057.71,4553742.54 656059.55,4553741.67 656062.03,4553741.57"/>
    </edge>
    <edge id=":278630057_0" function="internal">
        <lane id=":278630057_0_0" index="0" speed="13.89" length="11.15" shape="656640.00,4553581.46 656651.09,4553582.60"/>
    </edge>
    <edge id=":278630057_1" function="internal">
        <lane id=":278630057_1_0" index="0" disallow="tram rail_urban rail rail_electric rail_fast ship" speed="6.51" length="9.01" shape="656640.00,4553581.46 656642.39,4553582.06 656644.01,4553583.28 656644.88,4553585.13 656644.99,4553587.59"/>
    </edge>
    <edge id=":298504324_0" function="internal">
        <lane id=":298504324_0_0" index="0" disallow="tram rail_urban rail rail_electric rail_fast ship" speed="6.51" length="4.09" shape="656068.81,4553662.18 656066.41,4553661.61 656065.10,4553660.66"/>
    </edge>
    <edge id=":298504324_2" function="internal">
        <lane id=":298504324_2_0" index="0" disallow="tram rail_urban rail rail_electric rail_fast ship" speed="6.51" length="4.92" shape="656065.10,4553660.66 656064.76,4553660.41 656063.87,4553658.58 656063.73,4553656.12"/>
    </edge>
    <edge id=":298504324_1" function="internal">
        <lane id=":298504324_1_0" index="0" disallow="tram rail_urban rail rail_electric rail_fast ship" speed="13.89" length="11.15" shape="656062.77,4553667.24 656063.73,4553656.12"/>
    </edge>
    <edge id=":305365110_0" function="internal">
        <lane id=":305365110_0_0" index="0" disallow="tram rail_urban rail rail_electric rail_fast ship" speed="6.47" length="9.03" shape="656442.47,4553781.97 656439.99,4553782.05 656438.14,4553782.91 656436.93,4553784.54 656436.34,4553786.95"/>
    </edge>
    <edge id=":305365110_1" function="internal">
        <lane id=":305365110_1_0" index="0" disallow="tram rail_urban rail rail_electric rail_fast ship" speed="6.57" length="9.11" shape="656437.71,4553772.62 656437.83,4553775.08 656438.73,4553776.94 656440.39,4553778.17 656442.82,4553778.79"/>
    </edge>
    <edge id=":305365110_2" function="internal">
        <lane id=":305365110_2_0" index="0" disallow="tram rail_urban rail rail_electric rail_fast ship" speed="13.89" length="14.40" shape="656437.71,4553772.62 656436.34,4553786.95"/>
    </edge>
    <edge id=":305365110_3" function="internal">
        <lane id=":305365110_3_0" index="0" disallow="tram rail_urban rail rail_electric rail_fast ship" speed="13.89" length="11.41" shape="656431.45,4553779.19 656434.63,4553779.27 656437.14,4553778.98 656439.65,4553778.69 656442.82,4553778.79"/>
    </edge>
    <edge id=":305365110_4" function="internal">
        <lane id=":305365110_4_0" index="0" disallow="tram rail_urban rail rail_electric rail_fast ship" speed="6.95" length="4.20" shape="656431.45,4553779.19 656433.85,4553779.89 656435.09,4553781.06"/>
    </edge>
    <edge id=":305365110_5" function="internal">
        <lane id=":305365110_5_0" index="0" disallow="tram rail_urban rail rail_electric rail_fast ship" speed="6.95" length="6.20" shape="656435.09,4553781.06 656435.46,4553781.42 656436.29,4553783.77 656436.34,4553786.95"/>
    </edge>
    <edge id=":305365113_0" function="internal">
        <lane id=":305365113_0_0" index="0" disallow="tram rail_urban rail rail_electric rail_fast ship" speed="6.49" length="9.03" shape="656434.81,4553861.89 656432.34,4553861.99 656430.49,4553862.85 656429.28,4553864.49 656428.69,4553866.90"/>
    </edge>
    <edge id=":305365113_1" function="internal">
        <lane id=":305365113_1_0" index="0" disallow="tram rail_urban rail rail_electric rail_fast ship" speed="13.89" length="11.22" shape="656434.81,4553861.89 656423.65,4553860.78"/>
    </edge>
    <edge id=":305365113_2" function="internal">
        <lane id=":305365113_2_0" index="0" disallow="tram rail_urban rail rail_electric rail_fast ship" speed="13.89" length="11.21" shape="656429.76,4553855.74 656428.69,4553866.90"/>
    </edge>
    <edge id=":305365113_3" function="internal">
        <lane id=":305365113_3_0" index="0" disallow="tram rail_urban rail rail_electric rail_fast ship" speed="6.51" length="4.14" shape="656429.76,4553855.74 656429.18,4553858.14 656428.19,4553859.48"/>
    </edge>
    <edge id=":305365113_4" function="internal">
        <lane id=":305365113_4_0" index="0" disallow="tram rail_urban rail rail_electric rail_fast ship" speed="6.51" length="4.90" shape="656428.19,4553859.48 656427.97,4553859.79 656426.13,4553860.67 656423.65,4553860.78"/>
    </edge>
    <edge id=":305365115_0" function="internal">
        <lane id=":305365115_0_0" index="0" disallow="tram rail_urban rail rail_electric rail_fast ship" speed="6.52" length="9.02" shape="656422.74,4553929.05 656422.86,4553931.52 656423.73,4553933.36 656425.37,4553934.58 656427.77,4553935.17"/>
    </edge>
    <edge id=":305365115_1" function="internal">
        <lane id=":305365115_1_0" index="0" disallow="tram rail_urban rail rail_electric rail_fast ship" speed="13.89" length="11.17" shape="656422.74,4553929.05 656421.68,4553940.17"/>
    </edge>
    <edge id=":305365115_2" function="internal">
        <lane id=":305365115_2_0" index="0" disallow="tram rail_urban rail rail_electric rail_fast ship" speed="22.22" length="11.17" shape="656416.65,4553934.05 656427.77,4553935.17"/>
    </edge>
    <edge id=":305365115_3" function="internal">
        <lane id=":305365115_3_0" index="0" disallow="tram rail_urban rail rail_electric rail_fast ship" speed="6.52" length="9.02" shape="656416.65,4553934.05 656419.05,4553934.64 656420.69,4553935.86 656421.56,4553937.70 656421.68,4553940.17"/>
    </edge>
    <edge id=":308130828_0" function="internal">
        <lane id=":308130828_0_0" index="0" speed="13.89" length="11.20" shape="656362.88,4553552.64 656374.02,4553553.80"/>
    </edge>
    <edge id=":308130828_1" function="internal">
        <lane id=":308130828_1_0" index="0" disallow="tram rail_urban rail rail_electric rail_fast ship" speed="6.51" length="9.03" shape="656367.87,4553558.79 656368.47,4553556.39 656369.69,4553554.76 656371.54,4553553.89 656374.02,4553553.80"/>
    </edge>
    <edge id=":320970977_0" function="internal">
        <lane id=":320970977_0_0" index="0" disallow="tram rail_urban rail rail_electric rail_fast ship" speed="13.89" length="11.20" shape="656598.29,4554175.70 656587.14,4554174.61"/>
    </edge>
    <edge id=":320970977_1" function="internal">
        <lane id=":320970977_1_0" index="0" disallow="tram rail_urban rail rail_electric rail_fast ship" speed="6.50" length="9.03" shape="656593.24,4554169.57 656592.66,4554171.98 656591.46,4554173.62 656589.62,4554174.50 656587.14,4554174.61"/>
    </edge>
    <edge id=":320970978_0" function="internal">
        <lane id=":320970978_0_0" index="0" disallow="tram rail_urban rail rail_electric rail_fast ship" speed="13.89" length="11.19" shape="656691.49,4554184.75 656680.35,4554183.66"/>
    </edge>
    <edge id=":320970978_1" function="internal">
        <lane id=":320970978_1_0" index="0" disallow="tram rail_urban rail rail_electric rail_fast ship" speed="6.51" length="9.03" shape="656691.49,4554184.75 656689.09,4554184.16 656687.45,4554182.94 656686.57,4554181.10 656686.46,4554178.63"/>
    </edge>
    <edge id=":320970979_0" function="internal">
        <lane id=":320970979_0_0" index="0" disallow="tram rail_urban rail rail_electric rail_fast ship" speed="3.90" length="2.58" shape="656735.68,4554187.43 656735.51,4554188.12 656735.16,4554188.58 656734.63,4554188.83 656733.93,4554188.87"/>
    </edge>
    <edge id=":320970985_0" function="internal">
        <lane id=":320970985_0_0" index="0" disallow="tram rail_urban rail rail_electric rail_fast ship" speed="13.89" length="11.20" shape="656042.59,4553902.14 656043.55,4553890.98"/>
    </edge>
    <edge id=":320970985_1" function="internal">
        <lane id=":320970985_1_0" index="0" disallow="tram rail_urban rail rail_electric rail_fast ship" speed="6.48" length="9.03" shape="656042.59,4553902.14 656043.15,4553899.72 656044.35,4553898.08 656046.19,4553897.20 656048.66,4553897.09"/>
    </edge>
    <edge id=":320970986_0" function="internal">
        <lane id=":320970986_0_0" index="0" disallow="tram rail_urban rail rail_electric rail_fast ship" speed="6.53" length="9.01" shape="656144.13,4553900.84 656144.26,4553903.30 656145.15,4553905.14 656146.79,4553906.35 656149.19,4553906.94"/>
    </edge>
    <edge id=":320970986_1" function="internal">
        <lane id=":320970986_1_0" index="0" disallow="tram rail_urban rail rail_electric rail_fast ship" speed="13.89" length="11.12" shape="656144.13,4553900.84 656143.17,4553911.92"/>
    </edge>
    <edge id=":320970986_2" function="internal">
        <lane id=":320970986_2_0" index="0" disallow="tram rail_urban rail rail_electric rail_fast ship" speed="22.22" length="11.12" shape="656138.12,4553905.84 656149.19,4553906.94"/>
    </edge>
    <edge id=":320970986_3" function="internal">
        <lane id=":320970986_3_0" index="0" disallow="tram rail_urban rail rail_electric rail_fast ship" speed="6.52" length="9.00" shape="656138.12,4553905.84 656140.51,4553906.42 656142.15,4553907.63 656143.04,4553909.46 656143.17,4553911.92"/>
    </edge>
    <edge id=":320970987_0" function="internal">
        <lane id=":320970987_0_0" index="0" disallow="tram rail_urban rail rail_electric rail_fast ship" speed="6.49" length="9.03" shape="656155.38,4553835.53 656152.90,4553835.65 656151.07,4553836.53 656149.87,4553838.18 656149.31,4553840.59"/>
    </edge>
    <edge id=":320970987_1" function="internal">
        <lane id=":320970987_1_0" index="0" disallow="tram rail_urban rail rail_electric rail_fast ship" speed="13.89" length="11.23" shape="656155.38,4553835.53 656144.20,4553834.47"/>
    </edge>
    <edge id=":320970987_2" function="internal">
        <lane id=":320970987_2_0" index="0" disallow="tram rail_urban rail rail_electric rail_fast ship" speed="13.89" length="11.23" shape="656150.27,4553829.41 656149.31,4553840.59"/>
    </edge>
    <edge id=":320970987_3" function="internal">
        <lane id=":320970987_3_0" index="0" disallow="tram rail_urban rail rail_electric rail_fast ship" speed="6.49" length="4.12" shape="656150.27,4553829.41 656149.71,4553831.82 656148.75,4553833.15"/>
    </edge>
    <edge id=":320970987_4" function="internal">
        <lane id=":320970987_4_0" index="0" disallow="tram rail_urban rail rail_electric rail_fast ship" speed="6.49" length="4.91" shape="656148.75,4553833.15 656148.51,4553833.47 656146.68,4553834.35 656144.20,4553834.47"/>
    </edge>
    <edge id=":320970988_0" function="internal">
        <lane id=":320970988_0_0" index="0" disallow="tram rail_urban rail rail_electric rail_fast ship" speed="6.54" length="9.01" shape="656157.47,4553745.70 656157.60,4553748.16 656158.49,4553750.00 656160.13,4553751.21 656162.52,4553751.80"/>
    </edge>
    <edge id=":320970988_1" function="internal">
        <lane id=":320970988_1_0" index="0" disallow="tram rail_urban rail rail_electric rail_fast ship" speed="13.89" length="11.13" shape="656157.47,4553745.70 656156.51,4553756.78"/>
    </edge>
    <edge id=":320970988_2" function="internal">
        <lane id=":320970988_2_0" index="0" disallow="tram rail_urban rail rail_electric rail_fast ship" speed="13.89" length="11.13" shape="656151.46,4553750.68 656162.52,4553751.80"/>
    </edge>
    <edge id=":320970988_3" function="internal">
        <lane id=":320970988_3_0" index="0" disallow="tram rail_urban rail rail_electric rail_fast ship" speed="6.54" length="9.01" shape="656151.46,4553750.68 656153.85,4553751.27 656155.49,4553752.48 656156.38,4553754.32 656156.51,4553756.78"/>
    </edge>
    <edge id=":320970989_0" function="internal">
        <lane id=":320970989_0_0" index="0" disallow="tram rail_urban rail rail_electric rail_fast ship" speed="6.94" length="10.32" shape="656023.17,4554044.40 656026.33,4554044.29 656028.66,4554043.42 656030.15,4554041.80 656030.80,4554039.42"/>
    </edge>
    <edge id=":320970989_1" function="internal">
        <lane id=":320970989_1_0" index="0" disallow="tram rail_urban rail rail_electric rail_fast ship" speed="13.89" length="12.83" shape="656023.17,4554044.40 656026.53,4554044.91 656029.44,4554045.69 656032.34,4554046.50 656035.70,4554047.08"/>
    </edge>
    <edge id=":320970989_2" function="internal">
        <lane id=":320970989_2_0" index="0" disallow="tram rail_urban rail rail_electric rail_fast ship" speed="13.89" length="12.85" shape="656028.32,4554052.00 656028.75,4554048.63 656029.49,4554045.71 656030.27,4554042.78 656030.80,4554039.42"/>
    </edge>
    <edge id=":320970989_3" function="internal">
        <lane id=":320970989_3_0" index="0" disallow="tram rail_urban rail rail_electric rail_fast ship" speed="6.75" length="5.05" shape="656028.32,4554052.00 656028.89,4554049.58 656030.30,4554047.96 656030.68,4554047.82"/>
    </edge>
    <edge id=":320970989_4" function="internal">
        <lane id=":320970989_4_0" index="0" disallow="tram rail_urban rail rail_electric rail_fast ship" speed="6.75" length="5.14" shape="656030.68,4554047.82 656032.57,4554047.12 656035.70,4554047.08"/>
    </edge>
    <edge id=":320970990_0" function="internal">
        <lane id=":320970990_0_0" index="0" disallow="tram rail_urban rail rail_electric rail_fast ship" speed="6.52" length="4.06" shape="656042.26,4553970.97 656039.87,4553970.38 656038.58,4553969.43"/>
    </edge>
    <edge id=":320970990_2" function="internal">
        <lane id=":320970990_2_0" index="0" disallow="tram rail_urban rail rail_electric rail_fast ship" speed="6.52" length="4.90" shape="656038.58,4553969.43 656038.23,4553969.17 656037.34,4553967.35 656037.20,4553964.92"/>
    </edge>
    <edge id=":320970990_1" function="internal">
        <lane id=":320970990_1_0" index="0" disallow="tram rail_urban rail rail_electric rail_fast ship" speed="13.89" length="11.06" shape="656036.25,4553975.94 656037.20,4553964.92"/>
    </edge>
    <edge id=":320970991_0" function="internal">
        <lane id=":320970991_0_0" index="0" disallow="tram rail_urban rail rail_electric rail_fast ship" speed="6.48" length="9.03" shape="656142.83,4553981.38 656140.35,4553981.49 656138.52,4553982.37 656137.32,4553984.02 656136.76,4553986.44"/>
    </edge>
    <edge id=":320970991_1" function="internal">
        <lane id=":320970991_1_0" index="0" disallow="tram rail_urban rail rail_electric rail_fast ship" speed="13.89" length="11.25" shape="656142.83,4553981.38 656131.64,4553980.26"/>
    </edge>
    <edge id=":320970991_2" function="internal">
        <lane id=":320970991_2_0" index="0" disallow="tram rail_urban rail rail_electric rail_fast ship" speed="13.89" length="11.25" shape="656137.72,4553975.23 656136.76,4553986.44"/>
    </edge>
    <edge id=":320970991_3" function="internal">
        <lane id=":320970991_3_0" index="0" disallow="tram rail_urban rail rail_electric rail_fast ship" speed="6.47" length="4.11" shape="656137.72,4553975.23 656137.16,4553977.65 656136.20,4553978.97"/>
    </edge>
    <edge id=":320970991_4" function="internal">
        <lane id=":320970991_4_0" index="0" disallow="tram rail_urban rail rail_electric rail_fast ship" speed="6.47" length="4.92" shape="656136.20,4553978.97 656135.96,4553979.29 656134.12,4553980.16 656131.64,4553980.26"/>
    </edge>
    <edge id=":320971935_0" function="internal">
        <lane id=":320971935_0_0" index="0" disallow="tram rail_urban rail rail_electric rail_fast ship" speed="3.90" length="2.56" shape="656124.72,4554126.48 656124.76,4554127.18 656125.01,4554127.70 656125.48,4554128.04 656126.16,4554128.21"/>
    </edge>
    <edge id=":322548994_0" function="internal">
        <lane id=":322548994_0_0" index="0" disallow="tram rail_urban rail rail_electric rail_fast ship" speed="6.53" length="8.93" shape="656634.30,4553708.14 656634.46,4553710.55 656635.37,4553712.35 656637.01,4553713.55 656639.40,4553714.14"/>
    </edge>
    <edge id=":322548994_1" function="internal">
        <lane id=":322548994_1_0" index="0" disallow="tram rail_urban rail rail_electric rail_fast ship" speed="22.22" length="12.53" shape="656634.30,4553708.14 656633.31,4553720.62"/>
    </edge>
    <edge id=":322548994_2" function="internal">
        <lane id=":322548994_2_0" index="0" disallow="tram rail_urban rail rail_electric rail_fast ship" speed="6.79" length="10.11" shape="656634.30,4553708.14 656633.72,4553711.18 656632.53,4553713.28 656630.71,4553714.43 656628.26,4553714.63"/>
    </edge>
    <edge id=":322548996_0" function="internal">
        <lane id=":322548996_0_0" index="0" disallow="tram rail_urban rail rail_electric rail_fast ship" speed="13.89" length="12.69" shape="656545.76,4553706.55 656533.12,4553705.36"/>
    </edge>
    <edge id=":322548996_1" function="internal">
        <lane id=":322548996_1_0" index="0" disallow="tram rail_urban rail rail_electric rail_fast ship" speed="6.49" length="8.96" shape="656545.76,4553706.55 656543.37,4553705.97 656541.75,4553704.76 656540.88,4553702.94 656540.77,4553700.48"/>
    </edge>
    <edge id=":322548996_2" function="internal">
        <lane id=":322548996_2_0" index="0" disallow="tram rail_urban rail rail_electric rail_fast ship" speed="6.52" length="8.99" shape="656538.20,4553711.42 656538.04,4553708.96 656537.15,4553707.13 656535.51,4553705.93 656533.12,4553705.36"/>
    </edge>
    <edge id=":322548996_3" function="internal">
        <lane id=":322548996_3_0" index="0" disallow="tram rail_urban rail rail_electric rail_fast ship" speed="18.05" length="11.26" shape="656538.20,4553711.42 656538.70,4553708.31 656539.45,4553705.95 656540.22,4553703.59 656540.77,4553700.48"/>
    </edge>
    <edge id=":322548997_0" function="internal">
        <lane id=":322548997_0_0" index="0" disallow="tram rail_urban rail rail_electric rail_fast ship" speed="6.51" length="9.02" shape="656450.50,4553697.82 656448.03,4553697.94 656446.19,4553698.83 656444.98,4553700.47 656444.40,4553702.87"/>
    </edge>
    <edge id=":322548997_1" function="internal">
        <lane id=":322548997_1_0" index="0" disallow="tram rail_urban rail rail_electric rail_fast ship" speed="13.89" length="11.18" shape="656450.50,4553697.82 656439.37,4553696.79"/>
    </edge>
    <edge id=":322548997_2" function="internal">
        <lane id=":322548997_2_0" index="0" disallow="tram rail_urban rail rail_electric rail_fast ship" speed="13.89" length="11.18" shape="656445.47,4553691.75 656444.40,4553702.87"/>
    </edge>
    <edge id=":322548997_3" function="internal">